@<TRIPOS>MOLECULE
ref_lig
60 63 1
SMALL
GASTEIGER

@<TRIPOS>DICT

@<TRIPOS>ATOM
      1 S1         44.5640   14.2390    0.6740 S.3       1 527298      0.0000
      2 C2         44.7660   15.6490    1.7560 C.2       1 527298      0.0000
      3 C3         45.6900   15.3960    2.6670 C.2       1 527298      0.0000
      4 C4         46.2550   14.0410    2.5740 C.2       1 527298      0.0000
      5 C5         45.8210   13.2870    1.5520 C.2       1 527298      0.0000
      6 C6         44.0600   16.8790    1.4690 C.2       1 527298      0.0000
      7 O7         43.5980   16.8930    0.3080 O.co2     1 527298     -0.5000
      8 O8         43.9340   17.8230    2.2800 O.co2     1 527298     -0.5000
      9 C9         46.1250   11.9050    1.1290 C.ar      1 527298      0.0000
     10 C10        47.4420   11.3150    1.3100 C.ar      1 527298      0.0000
     11 C11        47.6400    9.9460    0.9420 C.ar      1 527298      0.0000
     12 C12        46.5390    9.1680    0.3780 C.ar      1 527298      0.0000
     13 C13        45.2230    9.7500    0.1790 C.ar      1 527298      0.0000
     14 C14        45.0420   11.1270    0.5390 C.ar      1 527298      0.0000
     15 BR19       47.3890   13.4840    3.9420 Br        1 527298      0.0000
     16 O20        45.9800   16.2840    3.6070 O.3       1 527298      0.0000
     17 C21        47.1930   16.9880    3.4380 C.3       1 527298      0.0000
     18 C22        47.4320   17.6890    4.7000 C.2       1 527298      0.0000
     19 O25        48.5780   18.1510    4.8510 O.co2     1 527298     -0.5000
     20 O26        46.5110   17.7930    5.5420 O.co2     1 527298     -0.5000
     21 N29        48.9040    9.4960    1.1630 N.pl3     1 527298      0.0000
     22 C30        49.1900    8.1380    1.5130 C.3       1 527298      0.0000
     23 C31        50.7090    7.9840    1.5980 C.3       1 527298      0.0000
     24 C32        51.1460    6.6380    2.1280 C.3       1 527298      0.0000
     25 N33        50.3910    6.3890    3.3570 N.am      1 527298      0.0000
     26 C34        48.9270    6.4400    3.3730 C.3       1 527298      0.0000
     27 C35        48.4990    7.7770    2.8260 C.3       1 527298      0.0000
     28 S46        51.1020    5.4460    4.5910 S.o2      1 527298      0.0000
     29 O47        50.2210    5.5670    5.7300 O.2       1 527298      0.0000
     30 O48        52.4790    5.8920    4.6940 O.2       1 527298      0.0000
     31 C49        50.8960    3.7760    3.9330 C.3       1 527298      0.0000
     32 C50        51.2570    2.7890    5.0020 C.ar      1 527298      0.0000
     33 C53        52.6630    2.4580    5.1260 C.ar      1 527298      0.0000
     34 C54        53.0480    1.5950    6.2220 C.ar      1 527298      0.0000
     35 C55        52.0250    1.0640    7.1210 C.ar      1 527298      0.0000
     36 C56        50.6230    1.4160    6.9910 C.ar      1 527298      0.0000
     37 C57        50.2150    2.2910    5.9050 C.ar      1 527298      0.0000
     38 H10        48.2585   11.9011    1.7161 H         1 527298      0.0000
     39 H12        46.7081    8.1335    0.1020 H         1 527298      0.0000
     40 H13        44.4063    9.1644   -0.2273 H         1 527298      0.0000
     41 H14        44.0808   11.5985    0.3690 H         1 527298      0.0000
     42 H53        53.3964    2.8415    4.4259 H         1 527298      0.0000
     43 H54        54.0911    1.3433    6.3757 H         1 527298      0.0000
     44 H55        52.3235    0.3846    7.9112 H         1 527298      0.0000
     45 H56        49.8917    1.0322    7.6931 H         1 527298      0.0000
     46 H57        49.1756    2.5661    5.7672 H         1 527298      0.0000
     47 H211       47.0952   17.6993    2.6047 H         1 527298      0.0000
     48 H212       48.0055   16.2789    3.2213 H         1 527298      0.0000
     49 H30        48.8162    7.4655    0.7268 H         1 527298      0.0000
     50 H311       51.1065    8.7624    2.2659 H         1 527298      0.0000
     51 H312       51.1343    8.1121    0.5917 H         1 527298      0.0000
     52 H321       52.2224    6.6416    2.3548 H         1 527298      0.0000
     53 H322       50.9278    5.8446    1.3980 H         1 527298      0.0000
     54 H341       48.5710    6.3177    4.4066 H         1 527298      0.0000
     55 H342       48.5288    5.6261    2.7493 H         1 527298      0.0000
     56 H351       47.4121    7.7489    2.6593 H         1 527298      0.0000
     57 H352       48.7352    8.5471    3.5751 H         1 527298      0.0000
     58 H491       51.5631    3.5587    3.0858 H         1 527298      0.0000
     59 H492       49.8580    3.5465    3.6505 H         1 527298      0.0000
     60 H29        49.6872   10.1592    1.0750 H         1 527298      0.0000
@<TRIPOS>BOND
     1    1    2 1
     2    1    5 1
     3    2    3 2
     4    2    6 1
     5    3    4 1
     6    3   16 1
     7    4    5 2
     8    4   15 1
     9    5    9 1
    10    6    7 ar
    11    6    8 ar
    12    9   14 ar
    13    9   10 ar
    14   10   11 ar
    15   11   12 ar
    16   11   21 1
    17   12   13 ar
    18   13   14 ar
    19   16   17 1
    20   17   18 1
    21   18   19 ar
    22   18   20 ar
    23   21   22 1
    24   22   23 1
    25   22   27 1
    26   23   24 1
    27   24   25 1
    28   25   26 1
    29   25   28 1
    30   26   27 1
    31   28   29 2
    32   28   31 1
    33   28   30 2
    34   31   32 1
    35   32   33 ar
    36   32   37 ar
    37   33   34 ar
    38   34   35 ar
    39   35   36 ar
    40   36   37 ar
    41   10   38 1
    42   12   39 1
    43   13   40 1
    44   14   41 1
    45   33   42 1
    46   34   43 1
    47   35   44 1
    48   36   45 1
    49   37   46 1
    50   17   47 1
    51   17   48 1
    52   22   49 1
    53   23   50 1
    54   23   51 1
    55   24   52 1
    56   24   53 1
    57   26   54 1
    58   26   55 1
    59   27   56 1
    60   27   57 1
    61   31   58 1
    62   31   59 1
    63   21   60 1
@<TRIPOS>SUBSTRUCTURE
1 527298 1
@<TRIPOS>COMMENT
0.0000



